DATABASE C:\Program Files (x86)\USGS\Phreeqc Interactive 3.7.3-15968\database\phreeqc.dat
SOLUTION 0
 temp 25.00
 pH 7.00
END
