# Developed by Guanru Zhang, Peng Lu, Yilun Zhang, Kevin Tu, and Chen Zhu
# All inquiries should be directed to supcrt@indiana.edu
# On 4/1/2019
# Citation: Zhang GR, Lu P, Zhang YL, Tu K, Zhu C. 2020. SUPPHREEQC: A program
#    for generating customized PHREEQC thermodynamic datasets from SUPCRTBL and
#    extending calculations to elevated pressures and temperatures. Computers &
#    Geosciences, 143: 104560.
# Visit https://hydrogeochem.earth.indiana.edu for updates


# LLNL.DAT framework (LogKs are along Psat).
# Temperature(oC): 0.01 - 300.
# It's users' responsibility to mind the valid upper limits of temperature and pressure for all data used.


LLNL_AQUEOUS_MODEL_PARAMETERS
-temperatures
    0.0100   30.0090   60.0080   90.0070
  120.0060  150.0050  180.0040  210.0030
  240.0020  270.0010  300.0000
-dh_a
    0.4937    0.5154    0.5466    0.5853
    0.6312    0.6855    0.7497    0.8264
    0.9210    1.0445    1.2186
-dh_b
    0.3253    0.3295    0.3346    0.3402
    0.3462    0.3525    0.3592    0.3663
    0.3739    0.3824    0.3925
-bdot
    0.0410    0.0660    0.0752    0.0764
    0.0728    0.0650    0.0542    0.0411
    0.0238    0.0014   -0.0290
-co2_coefs        # range: 0-400 oC, 0-500 bar
        -1.0312              0.0012806
          255.9                 0.4445
      -0.001606


SOLUTION_MASTER_SPECIES
Acetate  HAcetate       0.0     Acetate         59.
Ag	 Ag+		0.0	Ag		107.8682
Ag(1)	 Ag+		0	Ag
Ag(2)	 Ag+2   	0	Ag
Al       Al+3           0.0     Al              26.9815
Alkalinity HCO3-        1.0     Ca0.5(CO3)0.5   50.05
As	 H2AsO4-	0.0	As		74.9216
As(+3)	 H2AsO3-	0.0	As
As(+5)	 H2AsO4-	0.0	As
Au	 Au+		0.0	Au		196.9665
Au(+1)	 Au+		0.0	Au
Au(+3)	 Au+3		0.0	Au
B        B(OH)3         0.0     B               10.811
Ba       Ba+2           0.0     Ba              137.3270
Be	 Be+2		0.0	Be		9.0122
Bi       Bi+3           0.0     Bi              208.9804
Br       Br-            0.0     Br              79.904
Br(-0.3) Br3- 		0	Br
Br(-1)	 Br-		0	Br
Br(1)	 BrO-		0	Br
Br(5)	 BrO3-		0	Br
Br(7)	 BrO4-		0	Br
C        HCO3-          1.0     HCO3            12.0110
C(-4)	 CH4   		0.0	CH4
C(+2)	 CO   		0	C
C(+4)    HCO3-          1.0     HCO3
Ca       Ca+2           0.0     Ca              40.078
Cd       Cd+2           0.0     Cd              112.411
Ce	 Ce+3		0.0	Ce		140.115
Ce(+2)	 Ce+2		0.0	Ce
Ce(+3)	 Ce+3		0.0	Ce
Ce(+4)	 Ce+4		0.0	Ce
Cl       Cl-            0.0     Cl              35.4527
Cl(-1)	 Cl-		0	Cl
Cl(1)	 ClO-		0	Cl
Cl(3)	 ClO2-		0	Cl
Cl(5)	 ClO3-		0	Cl
Cl(7)	 ClO4-		0	Cl
Co	 Co+2		0.0	Co		58.9332
Co(+2)	 Co+2		0.0	Co
Co(+3)	 Co+3		0.0	Co
Cr	 CrO4-2		0.0	CrO4-2  	51.9961
Cr(+2)	 Cr+2		0.0	Cr
Cr(+3)	 Cr+3		0.0	Cr
Cr(+6)	 CrO4-2		0.0	Cr
Cs	 Cs+		0.0	Cs		132.9054
Cu       Cu+2           0.0     Cu              63.546
Cu(+1)   Cu+            0.0     Cu
Cu(+2)   Cu+2           0.0     Cu
Dy	 Dy+3		0.0	Dy		162.50
Dy(+2)	 Dy+2		0.0	Dy
Dy(+3)	 Dy+3		0.0	Dy
Dy(+4)	 Dy+4		0.0	Dy
E        e-             0.0     0.0             0.0
Er	 Er+3		0.0	Er		167.26
Er(+2)	 Er+2		0.0	Er
Er(+3)	 Er+3		0.0	Er
Er(+4)	 Er+4		0.0	Er
Eu	 Eu+3		0.0	Eu		151.965
Eu(+2)	 Eu+2		0.0	Eu
Eu(+3)	 Eu+3		0.0	Eu
Eu(+4)	 Eu+4		0.0	Eu
F        F-             0.0     F               18.9984
Fe       Fe+2           0.0     Fe              55.847
Fe(+2)   Fe+2           0.0     Fe
Fe(+3)   Fe+3           -2.0    Fe
Fr	 Fr+		0.0	Fr		223.0197
Ga	 Ga+3		0.0	Ga		69.723
Gd	 Gd+3		0.0	Gd		157.25
Gd(+2)	 Gd+2		0.0	Gd
Gd(+3)	 Gd+3		0.0	Gd
Gd(+4)	 Gd+4		0.0	Gd
H        H+             -1.     H               1.0079
H(0)     H2             0.0     H
H(+1)    H+             -1.     0.0
He	 He   		0.0	He		4.0026
Hf	 Hf+4		0.0	Hf		178.49
Hg	 Hg+2		0.0	Hg		200.59
Hg(+1)	 Hg2+2		0.0	Hg
Hg(+2)	 Hg+2		0.0	Hg
Ho	 Ho+3		0.0	Ho		164.9303
Ho(+2)	 Ho+2		0.0	Ho
Ho(+3)	 Ho+3		0.0	Ho
Ho(+4)	 Ho+4		0.0	Ho
I	 I-		0.0	I		126.9045
I(-0.3)  I3-		0	I
I(-1)	 I-		0.0	I
I(+1)	 IO-		0.0	I
I(+5)	 IO3-		0.0	I
I(+7)	 IO4-		0.0	I
In	 In+3		0.0	In		114.82
K        K+             0.0     K               39.0983
Kr	 Kr   		0.0	Kr		83.80
La	 La+3		0.0	La		138.9055
La(2)	 La+2		0	La
La(3)	 La+3		0	La
Li       Li+            0.0     Li              6.9410
Lu	 Lu+3		0.0	Lu		174.967
Lu(+3)   Lu+3		0.0	Lu
Lu(+4)   Lu+4		0.0	Lu
Mg       Mg+2           0.0     Mg              24.305
Mn       Mn+2           0.0     Mn              54.938
Mn(+2)   Mn+2           0.0     Mn
Mn(+3)   Mn+3           0.0     Mn
Mn(+6)   MnO4-2		0	Mn
Mn(+7)   MnO4-		0	Mn
Mo	 MoO4-2		0.0	Mo		95.94
N        NH3            1.0     N               14.0067
N(-3)    NH3            1.0     N
N(-2)    N2H5+          0.0     N
N(0)     N2             0.0     N
N(+1)    H2N2O2         0.0     N
N(+3)    NO2-           0.0     N
N(+5)    NO3-           0.0     N
Na       Na+            0.0     Na              22.9898
Nb       HNbO3          0.0     Nb              92.9064
Nd	 Nd+3		0.0	Nd		144.24
Nd(+2)	 Nd+2		0.0	Nd
Nd(+3)	 Nd+3		0.0	Nd
Nd(+4)	 Nd+4		0.0	Nd
Ne	 Ne   		0.0	Ne		20.1797
Ni	 Ni+2		0.0	Ni		58.69
O        H2O            0.0     O               15.994
O(-2)    H2O            0.0     0.0
O(-1)    H2O2           0.0     O
O(0)     O2             0.0     O
P        HPO4-2         2.0     P               30.9738
P(+1)    H2PO2-         0.0     P
P(+3)    H2PO3-         0.0     P
P(5)     HPO4-2         2.0     P
Pb       Pb+2           0.0     Pb              207.20
Pd	 Pd+2		0.0	Pd		106.42
Pm	 Pm+3		0.0	Pm		147.00
Pm(+2)	 Pm+2		0.0	Pm
Pm(+3)	 Pm+3		0.0	Pm
Pm(+4)   Pm+4		0.0	Pm
Pr	 Pr+3		0.0	Pr		140.9076
Pr(+2)	 Pr+2		0.0	Pr
Pr(+3)	 Pr+3		0.0	Pr
Pr(+4)	 Pr+4		0.0	Pr
Pt       Pt+2           0.0     Pt              195.078
Ra	 Ra+2		0.0	Ra		226.025
Rb	 Rb+		0.0	Rb		85.4678
Re	 ReO4-		0.0	Re		186.207
Rh       Rh+3           0.0     Rh              102.9055
Rh(+2)   Rh+2           0.0     Rh
Rh(+3)   Rh+3           0.0     Rh
Rn	 Rn   		0.0	Rn		222.00
Ru	 RuO4-2		0.0	Ru		101.07
Ru(+2)	 Ru+2		0.0	Ru
Ru(+3)	 Ru+3		0.0	Ru
Ru(+6)	 RuO4-2		0.0	Ru
S	 SO4-2          0.0     SO4             32.066
S(-2)	 HS-            1.0     S
S(+2)	 S2O3-2		0.0	S
S(+3)	 S2O4-2		0.0	S
S(+4)	 SO3-2		0.0	S
S(+5)	 S2O5-2		0.0	S
S(+6)	 SO4-2          0.0     SO4
S(+7)	 S2O8-2		0.0	S
S(+8)	 HSO5-		0.0	S
Sb	 HSbO2   	0.0	Sb		121.75
Sc	 Sc+3		0.0	Sc		44.9559
Se	 SeO3-2		0.0	Se		78.96
Se(-2)	 HSe-		0.0	Se
Se(+4)	 SeO3-2		0.0	Se
Se(+6)	 SeO4-2		0.0	Se
Si       SiO2           0.0     SiO2            28.0855
Sm	 Sm+3		0.0	Sm		150.36
Sm(+2)	 Sm+2		0.0	Sm
Sm(+3)	 Sm+3		0.0	Sm
Sm(+4)	 Sm+4		0.0	Sm
Sn	 Sn+2		0.0	Sn		118.71
Sr       Sr+2           0.0     Sr              87.62
Tb	 Tb+3		0.0	Tb		158.9253
Tb(+2)	 Tb+2		0.0	Tb
Tb(+3)	 Tb+3		0.0	Tb
Tb(+4)	 Tb+4		0.0	Tb
Tc	 TcO4-		0.0	Tc		98.00
Th	 Th+4		0.0	Th		232.0381
Tl	 Tl+		0.0	Tl		204.3833
Tl(+1)	 Tl+		0.0	Tl
Tl(+3)	 Tl+3		0.0	Tl
Tm	 Tm+3		0.0	Tm		168.9342
Tm(+2)	 Tm+2		0.0	Tm
Tm(+3)	 Tm+3		0.0	Tm
Tm(+4)	 Tm+4		0.0	Tm
U	 UO2+2		0.0	U		238.0289
U(+3)	 U+3		0.0	U
U(+4)	 U+4		0.0	U
U(+5)	 UO2+		0.0	U
U(+6)	 UO2+2		0.0	U
V	 VO+2		0.0	V		50.9415
V(+2)    V+2            0.0     V
V(+3)	 V+3		0.0	V
V(+4)	 VO+2		0.0	V
V(+5)	 VO2+		0.0	V
W	 WO4-2		0.0	W		183.85
Xe	 Xe   		0.0	Xe		131.29
Y	 Y+3		0.0	Y		88.9059
Yb	 Yb+3		0.0	Yb		173.04
Yb(+2)	 Yb+2		0.0	Yb
Yb(+3)	 Yb+3		0.0	Yb
Yb(+4)	 Yb+4		0.0	Yb
Zn       Zn+2           0.0     Zn              65.39
Zr	 ZrO+2		0.0	Zr		91.224


SOLUTION_SPECIES
Ag+ = Ag+
	-llnl_gamma	2.50
	-log_k	0.00
	-delta_h	0.00
Al+3 = Al+3
	-llnl_gamma	9.00
	-log_k	0.00
	-delta_h	0.00
Au+ = Au+
	-llnl_gamma	4.00
	-log_k	0.00
	-delta_h	0.00
B(OH)3 = B(OH)3
	-llnl_gamma	3.00
	-log_k	0.00
	-delta_h	0.00
Ba+2 = Ba+2
	-llnl_gamma	5.00
	-log_k	0.00
	-delta_h	0.00
Be+2 = Be+2
	-llnl_gamma	8.00
	-log_k	0.00
	-delta_h	0.00
Bi+3 = Bi+3
	-llnl_gamma	5.00
	-log_k	0.00
	-delta_h	0.00
Br- = Br-
	-llnl_gamma	3.00
	-log_k	0.00
	-delta_h	0.00
Ca+2 = Ca+2
	-llnl_gamma	6.00
	-log_k	0.00
	-delta_h	0.00
Cd+2 = Cd+2
	-llnl_gamma	5.00
	-log_k	0.00
	-delta_h	0.00
Ce+3 = Ce+3
	-llnl_gamma	9.00
	-log_k	0.00
	-delta_h	0.00
Cl- = Cl-
	-llnl_gamma	3.00
	-log_k	0.00
	-delta_h	0.00
Co+2 = Co+2
	-llnl_gamma	6.00
	-log_k	0.00
	-delta_h	0.00
CrO4-2 = CrO4-2
	-llnl_gamma	4.00
	-log_k	0.00
	-delta_h	0.00
Cs+ = Cs+
	-llnl_gamma	2.50
	-log_k	0.00
	-delta_h	0.00
Cu+2 = Cu+2
	-llnl_gamma	6.00
	-log_k	0.00
	-delta_h	0.00
Dy+3 = Dy+3
	-llnl_gamma	5.00
	-log_k	0.00
	-delta_h	0.00
Er+3 = Er+3
	-llnl_gamma	5.00
	-log_k	0.00
	-delta_h	0.00
Eu+3 = Eu+3
	-llnl_gamma	5.00
	-log_k	0.00
	-delta_h	0.00
F- = F-
	-llnl_gamma	3.50
	-log_k	0.00
	-delta_h	0.00
Fe+2 = Fe+2
	-llnl_gamma	6.00
	-log_k	0.00
	-delta_h	0.00
Fr+ = Fr+
	-llnl_gamma	4.00
	-log_k	0.00
	-delta_h	0.00
Ga+3 = Ga+3
	-llnl_gamma	5.00
	-log_k	0.00
	-delta_h	0.00
Gd+3 = Gd+3
	-llnl_gamma	5.00
	-log_k	0.00
	-delta_h	0.00
H+ = H+
	-llnl_gamma	9.00
	-log_k	0.00
	-delta_h	0.00
H2AsO4- = H2AsO4-
	-llnl_gamma	4.00
	-log_k	0.00
	-delta_h	0.00
H2O = H2O
	-llnl_gamma	3.00
	-log_k	0.00
	-delta_h	0.00
HAcetate = HAcetate
	-llnl_gamma	3.00
	-log_k	0.00
	-delta_h	0.00
HCO3- = HCO3-
	-llnl_gamma	4.00
	-log_k	0.00
	-delta_h	0.00
HNbO3 = HNbO3
	-llnl_gamma	3.00
	-log_k	0.00
	-delta_h	0.00
HPO4-2 = HPO4-2
	-llnl_gamma	4.00
	-log_k	0.00
	-delta_h	0.00
HSbO2 = HSbO2
	-llnl_gamma	3.00
	-log_k	0.00
	-delta_h	0.00
He = He
	-llnl_gamma	3.00
	-log_k	0.00
	-delta_h	0.00
Hf+4 = Hf+4
	-llnl_gamma	11.00
	-log_k	0.00
	-delta_h	0.00
Hg+2 = Hg+2
	-llnl_gamma	5.00
	-log_k	0.00
	-delta_h	0.00
Ho+3 = Ho+3
	-llnl_gamma	5.00
	-log_k	0.00
	-delta_h	0.00
I- = I-
	-llnl_gamma	3.00
	-log_k	0.00
	-delta_h	0.00
In+3 = In+3
	-llnl_gamma	9.00
	-log_k	0.00
	-delta_h	0.00
K+ = K+
	-llnl_gamma	3.00
	-log_k	0.00
	-delta_h	0.00
Kr = Kr
	-llnl_gamma	3.00
	-log_k	0.00
	-delta_h	0.00
La+3 = La+3
	-llnl_gamma	9.00
	-log_k	0.00
	-delta_h	0.00
Li+ = Li+
	-llnl_gamma	6.00
	-log_k	0.00
	-delta_h	0.00
Lu+3 = Lu+3
	-llnl_gamma	5.00
	-log_k	0.00
	-delta_h	0.00
Mg+2 = Mg+2
	-llnl_gamma	8.00
	-log_k	0.00
	-delta_h	0.00
Mn+2 = Mn+2
	-llnl_gamma	6.00
	-log_k	0.00
	-delta_h	0.00
MoO4-2 = MoO4-2
	-llnl_gamma	4.50
	-log_k	0.00
	-delta_h	0.00
NH3 = NH3
	-llnl_gamma	3.00
	-log_k	0.00
	-delta_h	0.00
Na+ = Na+
	-llnl_gamma	4.00
	-log_k	0.00
	-delta_h	0.00
Nd+3 = Nd+3
	-llnl_gamma	9.00
	-log_k	0.00
	-delta_h	0.00
Ne = Ne
	-llnl_gamma	3.00
	-log_k	0.00
	-delta_h	0.00
Ni+2 = Ni+2
	-llnl_gamma	6.00
	-log_k	0.00
	-delta_h	0.00
Pb+2 = Pb+2
	-llnl_gamma	4.50
	-log_k	0.00
	-delta_h	0.00
Pd+2 = Pd+2
	-llnl_gamma	4.50
	-log_k	0.00
	-delta_h	0.00
Pm+3 = Pm+3
	-llnl_gamma	5.00
	-log_k	0.00
	-delta_h	0.00
Pr+3 = Pr+3
	-llnl_gamma	9.00
	-log_k	0.00
	-delta_h	0.00
Pt+2 = Pt+2
	-llnl_gamma	4.50
	-log_k	0.00
	-delta_h	0.00
Ra+2 = Ra+2
	-llnl_gamma	5.00
	-log_k	0.00
	-delta_h	0.00
Rb+ = Rb+
	-llnl_gamma	2.50
	-log_k	0.00
	-delta_h	0.00
ReO4- = ReO4-
	-llnl_gamma	4.00
	-log_k	0.00
	-delta_h	0.00
Rh+3 = Rh+3
	-llnl_gamma	5.00
	-log_k	0.00
	-delta_h	0.00
Rn = Rn
	-llnl_gamma	3.00
	-log_k	0.00
	-delta_h	0.00
RuO4-2 = RuO4-2
	-llnl_gamma	4.00
	-log_k	0.00
	-delta_h	0.00
SO4-2 = SO4-2
	-llnl_gamma	4.00
	-log_k	0.00
	-delta_h	0.00
Sc+3 = Sc+3
	-llnl_gamma	9.00
	-log_k	0.00
	-delta_h	0.00
SeO3-2 = SeO3-2
	-llnl_gamma	4.00
	-log_k	0.00
	-delta_h	0.00
SiO2 = SiO2
	-llnl_gamma	3.00
	-log_k	0.00
	-delta_h	0.00
Sm+3 = Sm+3
	-llnl_gamma	9.00
	-log_k	0.00
	-delta_h	0.00
Sn+2 = Sn+2
	-llnl_gamma	6.00
	-log_k	0.00
	-delta_h	0.00
Sr+2 = Sr+2
	-llnl_gamma	5.00
	-log_k	0.00
	-delta_h	0.00
Tb+3 = Tb+3
	-llnl_gamma	5.00
	-log_k	0.00
	-delta_h	0.00
TcO4- = TcO4-
	-llnl_gamma	4.00
	-log_k	0.00
	-delta_h	0.00
Th+4 = Th+4
	-llnl_gamma	11.00
	-log_k	0.00
	-delta_h	0.00
Tl+ = Tl+
	-llnl_gamma	2.50
	-log_k	0.00
	-delta_h	0.00
Tm+3 = Tm+3
	-llnl_gamma	5.00
	-log_k	0.00
	-delta_h	0.00
UO2+2 = UO2+2
	-llnl_gamma	4.50
	-log_k	0.00
	-delta_h	0.00
VO+2 = VO+2
	-llnl_gamma	4.50
	-log_k	0.00
	-delta_h	0.00
WO4-2 = WO4-2
	-llnl_gamma	5.00
	-log_k	0.00
	-delta_h	0.00
Xe = Xe
	-llnl_gamma	3.00
	-log_k	0.00
	-delta_h	0.00
Y+3 = Y+3
	-llnl_gamma	9.00
	-log_k	0.00
	-delta_h	0.00
Yb+3 = Yb+3
	-llnl_gamma	5.00
	-log_k	0.00
	-delta_h	0.00
Zn+2 = Zn+2
	-llnl_gamma	6.00
	-log_k	0.00
	-delta_h	0.00
ZrO+2 = ZrO+2
	-llnl_gamma	4.50
	-log_k	0.00
	-delta_h	0.00
e- = e-
	-llnl_gamma	4.00
	-log_k	0.00
	-delta_h	0.00

#**************** secondary master species *********************
0.2500 O2    + 1.0000 Ag+ + 1.0000 H+ = Ag+2 + 0.5000 H2O
	-llnl_gamma	4.50
	-analytic	2.070154e+02	9.497207e-02	-7.156680e+03	-8.906440e+01	7.513513e+04	-4.402790e-05
0.5000 O2    + 1.0000 Au+ + 2.0000 H+ = Au+3 + 1.0000 H2O
	-llnl_gamma	5.00
	-analytic	3.542842e+02	1.658336e-01	-7.133725e+03	-1.535346e+02	2.354591e+05	-7.750215e-05
0.5000 O2    + 3.0000 Br- + 2.0000 H+ = Br3- + 1.0000 H2O
	-llnl_gamma	4.00
	-analytic	-3.499007e+03	-1.148830e+00	1.374055e+05	1.378427e+03	-5.396167e+06	4.232165e-04
0.5000 O2    + 1.0000 Br- = BrO-
	-llnl_gamma	4.00
	-analytic	1.281940e+02	5.843039e-02	-4.417393e+03	-5.585239e+01	-1.095631e+05	-2.565409e-05
1.5000 O2    + 1.0000 Br- = BrO3-
	-llnl_gamma	3.50
	-analytic	5.708157e+02	1.947908e-01	-2.244380e+04	-2.295126e+02	3.379622e+05	-7.480632e-05
2.0000 O2    + 1.0000 Br- = BrO4-
	-llnl_gamma	4.00
	-analytic	6.703097e+02	2.285680e-01	-3.031344e+04	-2.694196e+02	4.112306e+05	-8.837825e-05
1.0000 H2O + 1.0000 H+ + 1.0000 HCO3- = CH4    + 2.0000 O2
	-llnl_gamma	3.00
	-analytic	-3.029224e+03	-1.019433e+00	6.515905e+04	1.203520e+03	-3.690567e+06	3.821840e-04
1.0000 H+ + 1.0000 HCO3- = CO    + 1.0000 H2O + 0.5000 O2
	-llnl_gamma	3.00
	-analytic	-2.473073e+03	-8.120205e-01	7.863409e+04	9.784061e+02	-3.372927e+06	3.001580e-04
0.5000 H2O + 1.0000 Ce+3 = Ce+2 + 0.2500 O2    + 1.0000 H+
	-llnl_gamma	4.50
	-analytic	3.486106e+02	6.193699e-02	-4.754413e+04	-1.237579e+02	1.237189e+06	-3.965978e-06
0.2500 O2    + 1.0000 Ce+3 + 1.0000 H+ = Ce+4 + 0.5000 H2O
	-llnl_gamma	5.50
	-analytic	1.875371e+02	7.079727e-02	-9.263115e+03	-7.723175e+01	7.189524e+05	-2.922751e-05
0.5000 O2    + 1.0000 Cl- = ClO-
	-llnl_gamma	4.00
	-analytic	1.547350e+02	6.518290e-02	-7.129335e+03	-6.555750e+01	-6.461998e+04	-2.717036e-05
1.0000 O2    + 1.0000 Cl- = ClO2-
	-llnl_gamma	4.00
	-analytic	3.468104e+02	1.274828e-01	-1.632452e+04	-1.414360e+02	1.146568e+05	-5.052676e-05
1.5000 O2    + 1.0000 Cl- = ClO3-
	-llnl_gamma	3.50
	-analytic	4.887334e+02	1.736494e-01	-1.929685e+04	-1.976706e+02	1.893213e+05	-6.810202e-05
2.0000 O2    + 1.0000 Cl- = ClO4-
	-llnl_gamma	3.50
	-analytic	5.679762e+02	2.111929e-01	-1.948307e+04	-2.321520e+02	6.305910e+04	-8.518876e-05
0.2500 O2    + 1.0000 Co+2 + 1.0000 H+ = Co+3 + 0.5000 H2O
	-llnl_gamma	5.00
	-analytic	-1.415476e+02	-1.181476e-02	7.883753e+03	4.627369e+01	-5.874489e+05	-8.435735e-06
4.0000 H+ + 1.0000 CrO4-2 = Cr+2 + 2.0000 H2O + 1.0000 O2
	-llnl_gamma	4.50
	-analytic	-3.831091e+03	-1.224225e+00	1.412104e+05	1.506915e+03	-5.743638e+06	4.419169e-04
5.0000 H+ + 1.0000 CrO4-2 = Cr+3 + 2.5000 H2O + 0.7500 O2
	-llnl_gamma	9.00
	-analytic	-4.260287e+03	-1.315677e+00	1.739797e+05	1.663384e+03	-6.922748e+06	4.577250e-04
0.5000 H2O + 1.0000 Cu+2 = Cu+ + 0.2500 O2    + 1.0000 H+
	-llnl_gamma	4.00
	-analytic	4.030464e+01	-2.461021e-02	-1.268245e+04	-6.637140e+00	4.716528e+05	2.156703e-05
0.5000 H2O + 1.0000 Dy+3 = Dy+2 + 0.2500 O2    + 1.0000 H+
	-llnl_gamma	4.50
	-analytic	2.474500e+02	3.728258e-02	-3.537915e+04	-8.580722e+01	8.681629e+05	2.012205e-06
0.2500 O2    + 1.0000 Dy+3 + 1.0000 H+ = Dy+4 + 0.5000 H2O
	-llnl_gamma	5.50
	-analytic	-5.226323e+01	5.414425e-03	-1.161942e+04	1.448981e+01	5.969544e+04	-1.015892e-05
0.5000 H2O + 1.0000 Er+3 = Er+2 + 0.2500 O2    + 1.0000 H+
	-llnl_gamma	4.50
	-analytic	2.783548e+02	4.630865e-02	-3.960293e+04	-9.761015e+01	9.516337e+05	-8.226908e-07
0.2500 O2    + 1.0000 Er+3 + 1.0000 H+ = Er+4 + 0.5000 H2O
	-llnl_gamma	5.50
	-analytic	5.539527e+01	3.385631e-02	-2.302792e+04	-2.640448e+01	3.210707e+05	-1.843124e-05
0.5000 H2O + 1.0000 Eu+3 = Eu+2 + 0.2500 O2    + 1.0000 H+
	-llnl_gamma	4.50
	-analytic	2.479751e+02	3.651522e-02	-2.524806e+04	-8.575584e+01	9.202326e+05	2.560445e-06
0.2500 O2    + 1.0000 Eu+3 + 1.0000 H+ = Eu+4 + 0.5000 H2O
	-llnl_gamma	5.50
	-analytic	7.777398e+01	4.015689e-02	-2.625490e+04	-3.521515e+01	3.960288e+05	-2.036575e-05
0.2500 O2    + 1.0000 Fe+2 + 1.0000 H+ = Fe+3 + 0.5000 H2O
	-llnl_gamma	9.00
	-analytic	-1.131548e+02	-3.318655e-03	1.215578e+04	3.572685e+01	-4.952978e+05	-1.089387e-05
0.5000 H2O + 1.0000 Gd+3 = Gd+2 + 0.2500 O2    + 1.0000 H+
	-llnl_gamma	4.50
	-analytic	1.901752e+02	2.098981e-02	-3.983134e+04	-6.403301e+01	7.967122e+05	7.194162e-06
0.2500 O2    + 1.0000 Gd+3 + 1.0000 H+ = Gd+4 + 0.5000 H2O
	-llnl_gamma	5.50
	-analytic	2.848105e+00	1.934336e-02	-2.881491e+04	-7.004927e+00	2.333224e+05	-1.406837e-05
1.0000 H2O = H2    + 0.5000 O2
	-CO2_llnl_gamma
	-analytic	-5.339073e+02	-1.826637e-01	3.799753e+03	2.135815e+02	-4.594567e+05	6.967822e-05
1.0000 H2AsO4- = H2AsO3- + 0.5000 O2
	-llnl_gamma	4.00
	-analytic	-2.920364e+02	-9.558061e-02	6.700424e+02	1.164638e+02	-3.199870e+05	3.571916e-05
2.0000 O2    + 2.0000 NH3    = H2N2O2    + 2.0000 H2O
	-llnl_gamma	3.00
	-analytic	6.120381e+02	1.968211e-01	1.448380e+03	-2.432034e+02	5.397444e+05	-7.446602e-05
1.0000 H2O + 0.5000 O2    = H2O2
	-llnl_gamma	3.00
	-analytic	-6.834038e+01	-1.791143e-02	-5.397071e+02	2.563219e+01	-4.261376e+05	2.629661e-06
1.0000 HPO4-2 + 1.0000 H+ = H2PO2- + 1.0000 O2
	-llnl_gamma	4.00
	-analytic	-2.222585e+03	-7.484527e-01	4.790468e+04	8.846393e+02	-2.934314e+06	2.824431e-04
1.0000 HPO4-2 + 1.0000 H+ = H2PO3- + 0.5000 O2
	-llnl_gamma	4.00
	-analytic	-1.862292e+03	-6.406039e-01	5.165474e+04	7.438843e+02	-2.349747e+06	2.457618e-04
1.0000 SO4-2 + 1.0000 H+ = HS- + 2.0000 O2
	-llnl_gamma	3.50
	-analytic	-2.671053e+03	-9.042490e-01	5.191564e+04	1.064606e+03	-3.237636e+06	3.413126e-04
1.0000 H+ + 0.5000 O2    + 1.0000 SO4-2 = HSO5-
	-llnl_gamma	4.00
	-analytic	-1.311609e+03	-4.786000e-01	3.771722e+04	5.289146e+02	-1.343481e+06	1.897233e-04
1.0000 H+ + 1.0000 SeO3-2 = HSe- + 1.5000 O2
	-llnl_gamma	4.00
	-analytic	-2.542318e+03	-8.465367e-01	6.846040e+04	1.009578e+03	-3.379299e+06	3.165350e-04
1.0000 H2O + 2.0000 Hg+2 = Hg2+2 + 0.5000 O2    + 2.0000 H+
	-llnl_gamma	4.00
	-analytic	-4.280018e+02	-1.840966e-01	7.293630e+03	1.787280e+02	-2.751516e+05	7.947637e-05
0.5000 H2O + 1.0000 Ho+3 = Ho+2 + 0.2500 O2    + 1.0000 H+
	-llnl_gamma	4.50
	-analytic	2.026863e+02	2.435377e-02	-3.535777e+04	-6.855272e+01	7.950753e+05	6.171503e-06
0.2500 O2    + 1.0000 Ho+3 + 1.0000 H+ = Ho+4 + 0.5000 H2O
	-llnl_gamma	5.50
	-analytic	-4.229592e-01	2.043691e-02	-1.994007e+04	-5.616809e+00	1.758229e+05	-1.484103e-05
2.0000 H+ + 0.5000 O2    + 3.0000 I- = I3- + 1.0000 H2O
	-llnl_gamma	4.00
	-analytic	-3.918929e+03	-1.252274e+00	1.630409e+05	1.536523e+03	-6.408050e+06	4.527516e-04
0.5000 O2    + 1.0000 I- = IO-
	-llnl_gamma	4.00
	-analytic	2.808556e+01	3.766905e-02	4.805599e+03	-2.005062e+01	-4.278339e+05	-2.151411e-05
1.5000 O2    + 1.0000 I- = IO3-
	-llnl_gamma	4.00
	-analytic	6.005964e+02	2.164422e-01	-1.144297e+04	-2.445249e+02	3.167351e+05	-8.517922e-05
2.0000 O2    + 1.0000 I- = IO4-
	-llnl_gamma	3.50
	-analytic	5.345565e+02	1.923081e-01	-1.222373e+04	-2.175539e+02	1.092370e+05	-7.695048e-05
0.5000 H2O + 1.0000 La+3 = La+2 + 0.2500 O2    + 1.0000 H+
	-llnl_gamma	4.50
	-analytic	1.193379e+02	-6.035136e-04	-3.698741e+04	-3.580194e+01	6.651890e+05	1.402189e-05
0.2500 O2    + 1.0000 Lu+3 + 1.0000 H+ = Lu+4 + 0.5000 H2O
	-llnl_gamma	5.50
	-analytic	-7.081920e+01	-2.464269e-04	-2.928098e+04	2.201193e+01	2.207865e+04	-8.379130e-06
0.2500 O2    + 1.0000 Mn+2 + 1.0000 H+ = Mn+3 + 0.5000 H2O
	-llnl_gamma	5.00
	-analytic	-3.462324e+02	-6.786972e-02	1.995158e+04	1.239141e+02	-1.050775e+06	8.384906e-06
1.5000 H2O + 1.0000 Mn+2 + 1.2500 O2    = MnO4- + 3.0000 H+
	-llnl_gamma	3.50
	-analytic	2.008742e+03	6.152522e-01	-8.512235e+04	-7.848551e+02	3.045171e+06	-2.147181e-04
2.0000 H2O + 1.0000 Mn+2 + 1.0000 O2    = MnO4-2 + 4.0000 H+
	-llnl_gamma	4.00
	-analytic	3.812595e+03	1.218752e+00	-1.551163e+05	-1.500379e+03	5.660559e+06	-4.402726e-04
1.5000 O2    + 2.0000 NH3    = N2    + 3.0000 H2O
	-llnl_gamma	3.00
	-analytic	6.120054e+02	1.949599e-01	1.146442e+04	-2.414684e+02	1.018664e+06	-6.846279e-05
0.5000 O2    + 1.0000 H+ + 2.0000 NH3    = N2H5+ + 1.0000 H2O
	-llnl_gamma	4.00
	-analytic	6.940649e+02	2.063011e-01	-2.183156e+04	-2.707463e+02	1.166663e+06	-7.118066e-05
1.5000 O2    + 1.0000 NH3    = NO2- + 1.0000 H2O + 1.0000 H+
	-llnl_gamma	3.00
	-analytic	2.570802e+03	8.437177e-01	-8.190311e+04	-1.015856e+03	3.593230e+06	-3.098694e-04
2.0000 O2    + 1.0000 NH3    = NO3- + 1.0000 H2O + 1.0000 H+
	-llnl_gamma	3.00
	-analytic	2.759645e+03	9.082944e-01	-8.327980e+04	-1.091701e+03	3.740244e+06	-3.348740e-04
0.5000 H2O + 1.0000 Nd+3 = Nd+2 + 0.2500 O2    + 1.0000 H+
	-llnl_gamma	4.50
	-analytic	2.394631e+02	3.226629e-02	-3.673082e+04	-8.205146e+01	9.747745e+05	4.545675e-06
0.2500 O2    + 1.0000 Nd+3 + 1.0000 H+ = Nd+4 + 0.5000 H2O
	-llnl_gamma	5.50
	-analytic	1.625031e+02	6.533374e-02	-2.396385e+04	-6.783127e+01	6.207039e+05	-2.827624e-05
2 H2O = O2 + 4 H+ + 4 e-
	-CO2_llnl_gamma
	-analytic	-5.803788e+02	-2.038663e-01	-4.750688e+03	2.311672e+02	-6.809182e+05	7.588613e-05
0.5000 H2O + 1.0000 Pm+3 = Pm+2 + 0.2500 O2    + 1.0000 H+
	-llnl_gamma	4.50
	-analytic	3.109542e+02	5.152723e-02	-4.100353e+04	-1.094917e+02	1.142933e+06	-9.437187e-07
0.2500 O2    + 1.0000 Pm+3 + 1.0000 H+ = Pm+4 + 0.5000 H2O
	-llnl_gamma	5.50
	-analytic	2.076961e+02	7.697484e-02	-2.825726e+04	-8.508697e+01	7.300750e+05	-3.134513e-05
0.5000 H2O + 1.0000 Pr+3 = Pr+2 + 0.2500 O2    + 1.0000 H+
	-llnl_gamma	4.50
	-analytic	2.633032e+02	3.860871e-02	-3.977132e+04	-9.118035e+01	9.962821e+05	2.853266e-06
0.2500 O2    + 1.0000 Pr+3 + 1.0000 H+ = Pr+4 + 0.5000 H2O
	-llnl_gamma	5.50
	-analytic	1.304227e+02	5.564738e-02	-1.731415e+04	-5.541081e+01	5.324282e+05	-2.493402e-05
0.5000 H2O + 1.0000 Rh+3 = Rh+2 + 0.2500 O2    + 1.0000 H+
	-llnl_gamma	4.50
	-analytic	3.133617e+02	5.970870e-02	-1.989876e+04	-1.124743e+02	9.845975e+05	-6.155442e-06
4.0000 H+ + 1.0000 RuO4-2 = Ru+2 + 2.0000 H2O + 1.0000 O2
	-llnl_gamma	4.50
	-analytic	8.741999e+02	2.233817e-01	-4.545911e+04	-3.291692e+02	2.822067e+06	-4.680014e-05
5.0000 H+ + 1.0000 RuO4-2 = Ru+3 + 2.5000 H2O + 0.7500 O2
	-llnl_gamma	5.00
	-analytic	7.264950e+02	2.096792e-01	-2.892412e+04	-2.802845e+02	2.244003e+06	-5.454255e-05
2.0000 SO4-2 + 2.0000 H+ = S2O3-2 + 1.0000 H2O + 2.0000 O2
	-llnl_gamma	4.00
	-analytic	-4.338271e+03	-1.459174e+00	1.161342e+05	1.723978e+03	-5.710648e+06	5.472477e-04
2.0000 SO4-2 + 2.0000 H+ = S2O4-2 + 1.0000 H2O + 1.5000 O2
	-llnl_gamma	5.00
	-analytic	-3.880869e+03	-1.320707e+00	1.028570e+05	1.544961e+03	-4.989297e+06	4.997588e-04
2.0000 SO4-2 + 2.0000 H+ = S2O5-2 + 1.0000 H2O + 1.0000 O2
	-llnl_gamma	4.00
	-analytic	-3.756384e+03	-1.271701e+00	1.107130e+05	1.493148e+03	-5.036759e+06	4.783565e-04
2.0000 H+ + 0.5000 O2    + 2.0000 SO4-2 = S2O8-2 + 1.0000 H2O
	-llnl_gamma	4.00
	-analytic	-2.815748e+03	-9.841751e-01	9.297564e+04	1.124752e+03	-3.719148e+06	3.774808e-04
1.0000 SO4-2 = SO3-2 + 0.5000 O2
	-llnl_gamma	4.50
	-analytic	-1.835498e+02	-6.997737e-02	-8.845808e+03	7.486592e+01	-2.676155e+04	2.822447e-05
0.5000 O2    + 1.0000 SeO3-2 = SeO4-2
	-llnl_gamma	4.00
	-analytic	3.522444e+02	1.100413e-01	-9.056113e+03	-1.384512e+02	4.780264e+05	-3.920946e-05
0.5000 H2O + 1.0000 Sm+3 = Sm+2 + 0.2500 O2    + 1.0000 H+
	-llnl_gamma	4.50
	-analytic	2.832123e+02	4.466012e-02	-3.318805e+04	-9.918744e+01	1.084571e+06	6.260782e-07
0.2500 O2    + 1.0000 Sm+3 + 1.0000 H+ = Sm+4 + 0.5000 H2O
	-llnl_gamma	5.50
	-analytic	5.828059e+01	3.564632e-02	-2.060122e+04	-2.769818e+01	4.035303e+05	-1.896953e-05
0.5000 H2O + 1.0000 Tb+3 = Tb+2 + 0.2500 O2    + 1.0000 H+
	-llnl_gamma	4.50
	-analytic	2.617590e+02	3.983400e-02	-4.160751e+04	-9.097428e+01	9.463294e+05	1.873973e-06
0.2500 O2    + 1.0000 Tb+3 + 1.0000 H+ = Tb+4 + 0.5000 H2O
	-llnl_gamma	5.50
	-analytic	4.073389e+01	3.120606e-02	-8.899874e+03	-2.127635e+01	2.917325e+05	-1.782186e-05
0.5000 O2    + 1.0000 Tl+ + 2.0000 H+ = Tl+3 + 1.0000 H2O
	-llnl_gamma	5.00
	-analytic	5.977523e+02	2.330198e-01	-1.742773e+04	-2.464818e+02	8.466279e+05	-9.754335e-05
0.5000 H2O + 1.0000 Tm+3 = Tm+2 + 0.2500 O2    + 1.0000 H+
	-llnl_gamma	4.50
	-analytic	3.833623e+02	7.537822e-02	-4.067865e+04	-1.380769e+02	1.181046e+06	-9.678188e-06
0.2500 O2    + 1.0000 Tm+3 + 1.0000 H+ = Tm+4 + 0.5000 H2O
	-llnl_gamma	5.50
	-analytic	9.301008e+01	4.494953e-02	-2.410031e+04	-4.109445e+01	3.924290e+05	-2.195038e-05
1.0000 UO2+2 + 1.0000 H+ = U+3 + 0.5000 H2O + 0.7500 O2
	-llnl_gamma	5.00
	-analytic	-8.904337e+02	-2.421002e-01	1.962597e+04	3.420806e+02	-1.891178e+06	7.372414e-05
1.0000 UO2+2 + 2.0000 H+ = U+4 + 1.0000 H2O + 0.5000 O2
	-llnl_gamma	5.50
	-analytic	-7.484255e+02	-1.831512e-01	2.472308e+04	2.817653e+02	-1.357189e+06	4.743432e-05
0.5000 H2O + 1.0000 UO2+2 = UO2+ + 0.2500 O2    + 1.0000 H+
	-llnl_gamma	4.00
	-analytic	-6.584464e+02	-2.038151e-01	2.195811e+04	2.570558e+02	-1.495453e+06	7.079796e-05
1.0000 VO+2 = V+2 + 0.5000 O2
	-llnl_gamma	4.50
	-analytic	-6.214121e+02	-1.822710e-01	1.415861e+04	2.412580e+02	-1.381734e+06	5.950780e-05
1.0000 VO+2 + 1.0000 H+ = V+3 + 0.5000 H2O + 0.2500 O2
	-llnl_gamma	5.00
	-analytic	-3.686363e+02	-8.450232e-02	1.402597e+04	1.377839e+02	-1.024261e+06	1.859924e-05
0.5000 H2O + 1.0000 VO+2 + 0.2500 O2    = VO2+ + 1.0000 H+
	-llnl_gamma	4.00
	-analytic	-3.435118e+02	-1.012598e-01	1.904452e+04	1.316536e+02	-1.257951e+06	3.134276e-05
0.5000 H2O + 1.0000 Yb+3 = Yb+2 + 0.2500 O2    + 1.0000 H+
	-llnl_gamma	4.50
	-analytic	2.639643e+02	4.281465e-02	-2.918591e+04	-9.256114e+01	9.534563e+05	1.390256e-07
0.2500 O2    + 1.0000 Yb+3 + 1.0000 H+ = Yb+4 + 0.5000 H2O
	-llnl_gamma	5.50
	-analytic	8.548755e+01	4.264752e-02	-2.967486e+04	-3.826560e+01	3.960070e+05	-2.110860e-05

#**************** secondary species *********************
1.0000 HAcetate    = Acetate- + 1.0000 H+
	-llnl_gamma	4.50
	-analytic	2.199456e+03	6.953877e-01	-8.845654e+04	-8.630211e+02	3.789010e+06	-2.474325e-04
1.0000 HCO3- + 1.0000 Ag+ = Ag(CO3)- + 1.0000 H+
	-llnl_gamma	4.00
	-analytic	-5.582431e+01	-2.361038e-02	1.715270e+03	1.993848e+01	-5.620729e+04	8.606481e-06
2.0000 HCO3- + 1.0000 Ag+ = Ag(CO3)2-3 + 2.0000 H+
	-llnl_gamma	4.00
	-analytic	2.024473e+03	6.439125e-01	-8.333395e+04	-7.987078e+02	3.691919e+06	-2.322014e-04
2.0000 HS- + 1.0000 Ag+ = Ag(HS)2-
	-llnl_gamma	4.00
	-analytic	-1.773690e+03	-6.191656e-01	6.913449e+04	7.061272e+02	-2.158558e+06	2.377751e-04
1.0000 Cl- + 1.0000 Ag+ = AgCl
	-llnl_gamma	3.00
	-analytic	-2.120552e+03	-6.858001e-01	8.457017e+04	8.334913e+02	-3.532165e+06	2.473487e-04
2.0000 Cl- + 1.0000 Ag+ = AgCl2-
	-llnl_gamma	4.00
	-analytic	-2.206959e+03	-7.295378e-01	8.603918e+04	8.708057e+02	-3.336972e+06	2.698027e-04
3.0000 Cl- + 1.0000 Ag+ = AgCl3-2
	-llnl_gamma	4.00
	-analytic	-1.433026e+03	-5.057770e-01	5.196258e+04	5.712996e+02	-1.482366e+06	1.991891e-04
4.0000 Cl- + 1.0000 Ag+ = AgCl4-3
	-llnl_gamma	4.00
	-analytic	-1.094920e+03	-4.031090e-01	3.686283e+04	4.390630e+02	-5.228562e+05	1.656528e-04
1.0000 F- + 1.0000 Ag+ = AgF
	-llnl_gamma	3.00
	-analytic	-1.807966e+03	-6.088058e-01	6.913161e+04	7.149593e+02	-2.781333e+06	2.270530e-04
1.0000 H2AsO3- + 1.0000 Ag+ = AgH2AsO3
	-llnl_gamma	3.00
	-analytic	-1.875111e+03	-6.186035e-01	7.328946e+04	7.391252e+02	-3.027375e+06	2.246998e-04
1.0000 NO3- + 1.0000 Ag+ = AgNO3
	-llnl_gamma	3.00
	-analytic	-1.658468e+03	-5.559916e-01	6.279252e+04	6.556919e+02	-2.426160e+06	2.048367e-04
1.0000 H2O + 1.0000 Ag+ = AgO- + 2.0000 H+
	-llnl_gamma	4.00
	-analytic	1.510582e+03	4.919372e-01	-6.386469e+04	-5.965116e+02	2.225057e+06	-1.807479e-04
1.0000 H2O + 1.0000 Ag+ = AgOH    + 1.0000 H+
	-llnl_gamma	3.00
	-analytic	-3.639077e+02	-1.167055e-01	1.346353e+04	1.407202e+02	-8.979347e+05	3.883461e-05
2.0000 H2O + 1.0000 Al+3 = Al(OH)2+ + 2.0000 H+
	-llnl_gamma	4.00
	-analytic	5.625500e+02	1.084032e-01	-3.366732e+04	-2.053709e+02	1.483495e+06	-1.553946e-05
2.0000 H2O + 1.0000 Al+3 + 1.0000 F- = Al(OH)2F    + 2.0000 H+
	-llnl_gamma	3.00
	-analytic	-1.153996e+03	-4.806167e-01	3.098258e+04	4.778754e+02	-1.047630e+06	2.075769e-04
2.0000 H2O + 1.0000 Al+3 + 2.0000 F- = Al(OH)2F2- + 2.0000 H+
	-llnl_gamma	4.00
	-analytic	1.148080e+02	-1.950404e-01	-3.409010e+04	5.705436e+00	2.624715e+06	1.348740e-04
3.0000 H2O + 1.0000 Al+3 = Al(OH)3    + 3.0000 H+
	-llnl_gamma	3.00
	-analytic	5.132867e+02	7.030795e-02	-3.555390e+04	-1.817863e+02	1.553484e+06	3.357051e-06
4.0000 H2O + 1.0000 Al+3 = Al(OH)4- + 4.0000 H+
	-llnl_gamma	4.00
	-analytic	1.724176e+03	5.036424e-01	-8.037662e+04	-6.662769e+02	3.134858e+06	-1.598834e-04
1.0000 H2O + 1.0000 Al+3 + 2.0000 F- = Al(OH)F2    + 1.0000 H+
	-llnl_gamma	3.00
	-analytic	-2.878420e+03	-1.050556e+00	9.688678e+04	1.160560e+03	-3.740447e+06	4.183583e-04
1.0000 H2AsO4- + 1.0000 Al+3 = AlAsO4    + 2.0000 H+
	-llnl_gamma	3.00
	-analytic	-2.258049e+03	-7.586144e-01	8.731247e+04	8.909894e+02	-4.150731e+06	2.841730e-04
1.0000 F- + 1.0000 Al+3 = AlF+2
	-llnl_gamma	4.50
	-analytic	-1.409531e+03	-5.052043e-01	5.068060e+04	5.654271e+02	-1.765055e+06	1.994063e-04
2.0000 F- + 1.0000 Al+3 = AlF2+
	-llnl_gamma	4.00